Measurement: Powder, Xray Data XY RAW
Mineral: Analcime
Rruff sample: R060023
Ideal chemistry: NaAlSi_2_O_6_H_2_O
Locality: Dallas, Oregon, USA
Source: Bob Downs
Description: White trapezohedral crystal associated with levyne-Na, R060021
Diffraction sample description: Powder
Measured chemistry: (Na_0.98_[box]_0.02_)_Σ=1_(Si_2.02_Al_0.98_)O_6_·H_2_O
Cell parameters: a: 13.7213(7) b: 13.7213(7) c: 13.722(2) alpha: 90 beta: 90 gamma: 90 volume: 2583.6(0) crystal system: tetragonal
x	intensity
5	32
5.22	36
5.44	43
5.66	37
5.88	32
6.1	31
6.32	18
6.54	25
6.76	26
6.98	28
7.2	22
7.42	17
7.64	22
7.86	20
8.08	19
8.3	13
8.52	16
8.74	16
8.96	19
9.18	19
9.4	16
9.62	15
9.84	22
10.06	14
10.28	17
10.5	14
10.72	19
10.94	13
11.16	17
11.38	16
11.6	15
11.82	18
12.04	26
12.26	23
12.48	15
12.7	20
12.92	23
13.14	15
13.36	21
13.58	10
13.8	14
14.02	14
14.24	15
14.46	17
14.68	15
14.9	18
15.12	12
15.34	23
15.56	26
15.78	128
16	74
16.22	14
16.44	22
16.66	19
16.88	19
17.1	17
17.32	23
17.54	8
17.76	17
17.98	14
18.2	14
18.42	84
18.64	17
18.86	12
19.08	11
19.3	14
19.52	8
19.74	11
19.96	10
20.18	10
20.4	16
20.62	11
20.84	8
21.06	10
21.28	8
21.5	13
21.72	11
21.94	14
22.16	3
22.38	14
22.6	13
22.82	10
23.04	12
23.26	7
23.48	38
23.7	12
23.92	14
24.14	12
24.36	84
24.58	12
24.8	18
25.02	14
25.24	15
25.46	23
25.68	25
25.9	131
26.12	562
26.34	28
26.56	22
26.78	19
27	16
27.22	13
27.44	19
27.66	19
27.88	16
28.1	17
28.32	15
28.54	12
28.76	18
28.98	13
29.2	23
29.42	17
29.64	16
29.86	20
30.08	19
30.3	26
30.52	140
30.74	123
30.96	21
31.18	20
31.4	18
31.62	9
31.84	18
32.06	60
32.28	11
32.5	12
32.72	15
32.94	19
33.16	14
33.38	170
33.6	20
33.82	19
34.04	9
34.26	17
34.48	9
34.7	7
34.92	21
35.14	8
35.36	16
35.58	14
35.8	60
36.02	103
36.24	12
36.46	16
36.68	9
36.9	7
37.12	122
37.34	11
37.56	10
37.78	11
38	7
38.22	12
38.44	15
38.66	12
38.88	7
39.1	8
39.32	10
39.54	13
39.76	7
39.98	11
40.2	9
40.42	23
40.64	57
40.86	15
41.08	11
41.3	9
41.52	6
41.74	19
41.96	9
42.18	8
42.4	14
42.62	11
42.84	13
43.06	11
43.28	16
43.5	10
43.72	11
43.94	12
44.16	13
44.38	11
44.6	7
44.82	24
45.04	8
45.26	13
45.48	13
45.7	8
45.92	5
46.14	8
46.36	14
46.58	9
46.8	14
47.02	21
47.24	17
47.46	20
47.68	20
47.9	89
48.12	21
48.34	8
48.56	13
48.78	75
49	30
49.22	10
49.44	7
49.66	15
49.88	24
50.1	9
50.32	11
50.54	6
50.76	16
50.98	4
51.2	10
51.42	5
51.64	8
51.86	9
52.08	13
52.3	28
52.52	178
52.74	70
52.96	11
53.18	8
53.4	51
53.62	30
53.84	11
54.06	17
54.28	53
54.5	55
54.72	6
54.94	16
55.16	18
55.38	21
55.6	14
55.82	12
56.04	6
56.26	6
56.48	9
56.7	7
56.92	23
57.14	22
57.36	14
57.58	20
57.8	54
58.02	30
58.24	11
58.46	9
58.68	12
58.9	9
59.12	9
59.34	9
59.56	14
59.78	6
60	10
60.22	8
60.44	14
60.66	12
60.88	9
61.1	5
61.32	10
61.54	14
61.76	11
61.98	28
62.2	23
62.42	8
62.64	13
62.86	29
63.08	18
63.3	9
63.52	10
63.74	25
63.96	10
64.18	9
64.4	22
64.62	15
64.84	13
65.06	6
65.28	12
65.5	7
65.72	8
65.94	50
66.16	47
66.38	13
66.6	9
66.82	18
67.04	13
67.26	13
67.48	8
67.7	10
67.92	21
68.14	9
68.36	30
68.58	17
68.8	7
69.02	33
69.24	36
69.46	22
69.68	8
69.9	13
70.12	13
70.34	8
70.56	7
70.78	8
71	6
71.22	14
71.44	10
71.66	7
71.88	8
72.1	11
72.32	28
72.54	13
72.76	8
72.98	7
73.2	17
73.42	8
73.64	22
73.86	31
74.08	16
74.3	11
74.52	14
74.74	9
74.96	9
75.18	25
75.4	19
75.62	15
75.84	10
76.06	12
76.28	12
76.5	9
76.72	13
76.94	16
77.16	12
77.38	2
77.6	10
77.82	9
78.04	25
78.26	59
78.48	31
78.7	16
78.92	16
79.14	14
79.36	6
79.58	4
79.8	15
80.02	7
80.24	9
80.46	8
80.68	15
80.9	17
81.12	28
81.34	22
81.56	8
81.78	7
82	5
82.22	5
82.44	12
82.66	19
82.88	17
83.1	11
83.32	6
83.54	11
83.76	13
83.98	10
84.2	7
84.42	4
84.64	11
84.86	10
85.08	6
85.3	9
85.52	12
85.74	10
85.96	9
86.18	10
86.4	11
86.62	7
86.84	20
87.06	16
87.28	21
87.5	7
87.72	4
87.94	12
88.16	4
88.38	8
88.6	11
88.82	9
89.04	2
89.26	7
89.48	15
89.7	5
89.92	10
