Measurement: Powder, Xray Data XY RAW
Mineral: Analcime
Rruff sample: R040128
Ideal chemistry: NaAlSi_2_O_6_H_2_O
Locality: Mont Saint-Hilaire, Rouville County, Quebec, Canada
Source: Bob Downs
Description: White trapezohedra associated with black arfvedsonite, R040127
Diffraction sample description: Powder
Measured chemistry: Na_0.93_(Si_2.04_Al_0.99_)O_6_Â·H_2_O
Cell parameters: a: 13.7318(7) b: 13.7318(7) c: 13.7232(10) alpha: 90. beta: 90. gamma: 90. volume: 2587.6(3) crystal system: tetragonal
x	intensity
5	26
5.22	21
5.44	29
5.66	25
5.88	28
6.1	28
6.32	26
6.54	18
6.76	22
6.98	18
7.2	22
7.42	24
7.64	16
7.86	11
8.08	12
8.3	21
8.52	14
8.74	15
8.96	16
9.18	15
9.4	18
9.62	19
9.84	14
10.06	19
10.28	16
10.5	16
10.72	11
10.94	16
11.16	13
11.38	15
11.6	12
11.82	10
12.04	17
12.26	12
12.48	24
12.7	19
12.92	55
13.14	27
13.36	24
13.58	16
13.8	17
14.02	18
14.24	26
14.46	27
14.68	25
14.9	11
15.12	19
15.34	28
15.56	29
15.78	468
16	73
16.22	19
16.44	30
16.66	14
16.88	23
17.1	18
17.32	17
17.54	19
17.76	19
17.98	18
18.2	39
18.42	51
18.64	20
18.86	18
19.08	15
19.3	17
19.52	19
19.74	8
19.96	14
20.18	13
20.4	12
20.62	10
20.84	17
21.06	18
21.28	13
21.5	12
21.72	8
21.94	8
22.16	13
22.38	11
22.6	15
22.82	15
23.04	16
23.26	15
23.48	36
23.7	14
23.92	20
24.14	21
24.36	98
24.58	19
24.8	17
25.02	15
25.24	23
25.46	27
25.68	24
25.9	450
26.12	213
26.34	36
26.56	28
26.78	23
27	28
27.22	23
27.44	19
27.66	29
27.88	11
28.1	23
28.32	17
28.54	17
28.76	24
28.98	18
29.2	33
29.42	16
29.64	22
29.86	23
30.08	21
30.3	22
30.52	569
30.74	75
30.96	24
31.18	30
31.4	34
31.62	25
31.84	30
32.06	54
32.28	34
32.5	15
32.72	14
32.94	21
33.16	38
33.38	146
33.6	21
33.82	23
34.04	17
34.26	13
34.48	21
34.7	18
34.92	18
35.14	16
35.36	24
35.58	21
35.8	164
36.02	51
36.24	19
36.46	22
36.68	17
36.9	20
37.12	92
37.34	15
37.56	22
37.78	15
38	15
38.22	17
38.44	19
38.66	10
38.88	15
39.1	14
39.32	15
39.54	15
39.76	27
39.98	15
40.2	13
40.42	39
40.64	67
40.86	16
41.08	18
41.3	19
41.52	15
41.74	21
41.96	17
42.18	13
42.4	15
42.62	27
42.84	16
43.06	13
43.28	6
43.5	11
43.72	9
43.94	11
44.16	16
44.38	17
44.6	8
44.82	39
45.04	15
45.26	15
45.48	16
45.7	13
45.92	22
46.14	9
46.36	13
46.58	23
46.8	26
47.02	11
47.24	16
47.46	19
47.68	47
47.9	110
48.12	22
48.34	19
48.56	14
48.78	104
49	23
49.22	19
49.44	16
49.66	23
49.88	15
50.1	8
50.32	23
50.54	14
50.76	12
50.98	11
51.2	12
51.42	17
51.64	17
51.86	21
52.08	29
52.3	29
52.52	179
52.74	25
52.96	17
53.18	16
53.4	54
53.62	31
53.84	17
54.06	15
54.28	66
54.5	36
54.72	13
54.94	11
55.16	27
55.38	25
55.6	20
55.82	9
56.04	18
56.26	13
56.48	13
56.7	14
56.92	32
57.14	16
57.36	11
57.58	22
57.8	51
58.02	22
58.24	12
58.46	13
58.68	12
58.9	14
59.12	10
59.34	4
59.56	14
59.78	18
60	15
60.22	13
60.44	16
60.66	12
60.88	18
61.1	12
61.32	11
61.54	9
61.76	16
61.98	32
62.2	22
62.42	15
62.64	21
62.86	32
63.08	16
63.3	19
63.52	32
63.74	28
63.96	13
64.18	14
64.4	25
64.62	17
64.84	18
65.06	13
65.28	14
65.5	13
65.72	11
65.94	56
66.16	42
66.38	14
66.6	11
66.82	9
67.04	17
67.26	12
67.48	16
67.7	18
67.92	24
68.14	17
68.36	25
68.58	23
68.8	10
69.02	53
69.24	47
69.46	18
69.68	11
69.9	22
70.12	15
70.34	11
70.56	15
70.78	10
71	17
71.22	10
71.44	9
71.66	11
71.88	20
72.1	27
72.32	19
72.54	17
72.76	9
72.98	12
73.2	18
73.42	13
73.64	49
73.86	30
74.08	15
74.3	12
74.52	11
74.74	10
74.96	19
75.18	43
75.4	20
75.62	14
75.84	10
76.06	12
76.28	18
76.5	10
76.72	18
76.94	18
77.16	16
77.38	19
77.6	10
77.82	15
78.04	38
78.26	44
78.48	28
78.7	11
78.92	10
79.14	13
79.36	11
79.58	13
79.8	15
80.02	10
80.24	6
80.46	13
80.68	15
80.9	17
81.12	24
81.34	23
81.56	12
81.78	18
82	12
82.22	15
82.44	21
82.66	15
82.88	15
83.1	10
83.32	10
83.54	9
83.76	9
83.98	19
84.2	12
84.42	7
84.64	16
84.86	10
85.08	14
85.3	20
85.52	13
85.74	13
85.96	6
86.18	9
86.4	12
86.62	20
86.84	29
87.06	23
87.28	12
87.5	8
87.72	15
87.94	12
88.16	9
88.38	9
88.6	9
88.82	6
89.04	8
89.26	10
89.48	7
89.7	20
89.92	13
